[TELEMACHUS, spoken]
Get away from him!
[ENSEMBLE]
Telemachus
Telemachus
[ANTINOUS, spoken]
It's the prince!
[ENSEMBLE]
Telemachus
Telemachus
[TELEMACHUS]
Father, don't you worry
You'll no longer fight alone
[ODYSSEUS, spoken]
Son?
[TELEMACHUS]
Let's destroy these monsters and return you to your throne
Father, I've been training
I can fight and lend a hand
I will hold them off for now, so please get up when you can
[ENSEMBLE]
Telemachus
Telemachus
[ATHENA]
Glad to join the party
Though I'm sorry I came late
[ANTINOUS, spoken]
Hey fellas
I'm ready
Last Update: August, 08th 2025