[TELEMACHUS]
How do you do it?
How do you cope?
How do you turn off the light inside
And turn your heart cold?
My bow is ready
Arrow is drawn
Even if I were to shoot them now
How would I go on?
Every moment breaks my heart
Every day, I’m scared
Even when I’m needed, I don’t dare
This resentment brims with pain
Someone tell me why
Instead of strength, I’ve oceans in my eyes
Last Update: August, 01st 2025